Version 4
SHEET 1 2080 680
WIRE 416 -16 416 -48
WIRE 448 -16 416 -16
WIRE 560 -16 528 -16
WIRE 592 -16 560 -16
WIRE 416 16 416 -16
WIRE 560 16 560 -16
WIRE 416 112 416 96
WIRE 560 112 560 80
WIRE 560 112 416 112
WIRE 416 144 416 112
WIRE 416 352 416 320
WIRE 448 352 416 352
WIRE 544 352 512 352
WIRE 576 352 544 352
WIRE 416 384 416 352
WIRE 544 384 544 352
WIRE 416 496 416 464
WIRE 544 496 544 464
WIRE 544 496 416 496
WIRE 416 528 416 496
FLAG 592 -16 Vout1
FLAG 576 352 Vout2
FLAG 416 528 0
FLAG 416 144 0
FLAG 416 320 Vin2
FLAG 416 -48 Vin1
SYMBOL voltage 416 368 R0
WINDOW 0 -72 14 Left 2
WINDOW 3 -183 84 Left 2
WINDOW 123 0 0 Left 0
WINDOW 39 0 0 Left 0
SYMATTR InstName V2
SYMATTR Value SINE(0 1 1K)
SYMBOL res 544 -32 R90
WINDOW 0 0 56 VBottom 2
WINDOW 3 32 56 VTop 2
SYMATTR InstName R1
SYMATTR Value 1K
SYMBOL cap 544 16 R0
SYMATTR InstName C1
SYMATTR Value 159n
SYMBOL cap 448 368 R270
WINDOW 0 32 32 VTop 2
WINDOW 3 0 32 VBottom 2
SYMATTR InstName C2
SYMATTR Value 159n
SYMBOL res 528 368 R0
SYMATTR InstName R2
SYMATTR Value 1K
SYMBOL voltage 416 0 R0
WINDOW 0 -72 14 Left 2
WINDOW 3 -183 84 Left 2
WINDOW 123 0 0 Left 0
WINDOW 39 0 0 Left 0
SYMATTR InstName V1
SYMATTR Value SINE(0 1 1K)
TEXT 14 392 Left 2 !.tran 0.01
TEXT 672 -88 Left 2 ;Vout = ( Vin / ( 1 + 2*pi*f*RC ) )
TEXT 672 8 Left 2 ;RC = 1 / 2*pi*f
TEXT 672 56 Left 2 ;RC = 0.000159
TEXT 672 -40 Left 2 ;Vout = 0.5
TEXT 672 104 Left 2 ;R = 1K
TEXT 672 152 Left 2 ;C = 159n
TEXT 656 280 Left 2 ;Vout = ( Vin * 2*pi*f*RC / ( 1 + 2*pi*f*RC ) )
TEXT 656 376 Left 2 ;RC = 1 / 2*pi*f
TEXT 656 424 Left 2 ;RC = 0.000159
TEXT 656 328 Left 2 ;Vout = 0.5
TEXT 656 472 Left 2 ;R = 1K
TEXT 656 520 Left 2 ;C = 159n
TEXT 224 -136 Left 2 ;Low Pass Filter
TEXT 224 232 Left 2 ;High Pass Filter
TEXT 1224 -80 Left 2 ;In both cases the capacitor is unable to keep up with the input voltage.\nThis results in the excess energy, that the capacitor hasn't stored, being\ndissipated in the resistor. The only difference between the two systems is\nfrom where we source the output voltage
RECTANGLE Normal 1072 176 224 -112 2
RECTANGLE Normal 1216 560 224 256 2
